/*--------------------------------*- C++ -*----------------------------------*\
| =========                 |                                                 |
| \\      /  F ield         | OpenFOAM: The Open Source CFD Toolbox           |
|  \\    /   O peration     | Version:  5.x                                   |
|   \\  /    A nd           | Web:      www.OpenFOAM.org                      |
|    \\/     M anipulation  |                                                 |
\*---------------------------------------------------------------------------*/
FoamFile
{
    version     2.0;
    format      ascii;
    class       dictionary;
    location    "constant";
    object      IBMProperties;
}
// * * * * * * * * * * * * * * * * * * * * * * * * * * * * * * * * * * * * * //

nParticles	1;
moving	true;
rotating	true;
coupled	true;
e	1;
flow
{
UInf	(1 0 0);
rho	rhoInf;
rhoInf	1;
}
particle.0
{
particleShape	ellipse;
position	(0 0 0);
a	0.05;
b	0.15;
nTheta	300;
nk	1;
delta	0.004;
rho	1000;
theta	(0 0 0.663014429);
v	(-0.2949208535 0.5582986288 0);
}

