/*--------------------------------*- C++ -*----------------------------------*\
| =========                 |                                                 |
| \\      /  F ield         | OpenFOAM: The Open Source CFD Toolbox           |
|  \\    /   O peration     | Version:  dev                                   |
|   \\  /    A nd           | Web:      www.OpenFOAM.org                      |
|    \\/     M anipulation  |                                                 |
\*---------------------------------------------------------------------------*/
FoamFile
{
    version     2.0;
    format      ascii;
    class       dictionary;
    location    "constant";
    object      IBMproperties;
}
// * * * * * * * * * * * * * * * * * * * * * * * * * * * * * * * * * * * * * //
nParticles	5;
moving true;
rotating true;
e 0.9;

flow
{
    UInf    (0.3 0 0);
    rhoRef  1.4;
}
particle.0
{
    particleShape	cylinder;
    rho 10;
//     v   (0.2 0.5 0);
//     omega (0 0 3.0);
    position (-0.1 0 0);
    d 0.1;
    nTheta	300;
    delta	0.0025;
}

particle.1
{
    particleShape	cylinder;
    rho 100;
//     v   (0 0 0);
    omega (0 0 3.0);
    position (0.1 0.1 0);
    d	0.15;
    nTheta	350;
    delta	0.0025;
}

particle.2
{
    particleShape	cylinder;
    rho 10;
    v   (0 -1 0);
//     omega (0 0 5.0);
    position (-0.1 -0.1 0);
    d	0.05;
    nTheta	250;
    delta	0.0025;
}

particle.3
{
    particleShape	cylinder;
    rho 100;
    v   (0 1 0);
    position (-0.1 0.1 0);
    d	0.05;
    nTheta	250;
    delta	0.0025;
}

particle.4
{
    particleShape	cylinder;
    rho 100;
//     v   (0 0 0);
    omega (0 0 -3.0);
    position (0.1 -0.1 0);
    d	0.15;
    nTheta	350;
    delta	0.0025;
}
// ************************************************************************* //
