/*--------------------------------*- C++ -*----------------------------------*\
| =========                 |                                                 |
| \\      /  F ield         | OpenFOAM: The Open Source CFD Toolbox           |
|  \\    /   O peration     | Version:  5.x                                   |
|   \\  /    A nd           | Web:      www.OpenFOAM.org                      |
|    \\/     M anipulation  |                                                 |
\*---------------------------------------------------------------------------*/
FoamFile
{
    version     2.0;
    format      ascii;
    class       dictionary;
    location    "constant";
    object      IBMProperties;
}
// * * * * * * * * * * * * * * * * * * * * * * * * * * * * * * * * * * * * * //

nParticles	81;
moving	true;
rotating	false;
coupled	true;
e	0.8;
flow
{
UInf	(1 0 0);
rho	rhoInf;
rhoInf	1;
}
particle.0
{
particleShape	cylinder;
position	(-0.08749890909 0.1245632815 0);
d	0.05;
nTheta	100;
nk	1;
delta	0.003;
rho	100;
v	(0.04079378611 -0.1793883649 0);
}
particle.1
{
particleShape	cylinder;
position	(-0.01896072939 0.1093638065 0);
d	0.05;
nTheta	100;
nk	1;
delta	0.003;
rho	100;
v	(-0.4353294179 0.4068391768 0);
}
particle.2
{
particleShape	cylinder;
position	(-0.1105132789 -0.0550430387 0);
d	0.05;
nTheta	100;
nk	1;
delta	0.003;
rho	100;
v	(0.03073239199 0.1018751253 0);
}
particle.3
{
particleShape	cylinder;
position	(-0.0007754799531 -0.1073700458 0);
d	0.05;
nTheta	100;
nk	1;
delta	0.003;
rho	100;
v	(0.004025179089 -0.1365472769 0);
}
particle.4
{
particleShape	cylinder;
position	(0.1224464852 0.07139006453 0);
d	0.05;
nTheta	100;
nk	1;
delta	0.003;
rho	100;
v	(-0.1790089236 0.2522249885 0);
}
particle.5
{
particleShape	cylinder;
position	(0.02434055338 0.01078956134 0);
d	0.05;
nTheta	100;
nk	1;
delta	0.003;
rho	100;
v	(0.0001974194105 -0.2132705624 0);
}
particle.6
{
particleShape	cylinder;
position	(-0.05571467546 -0.0200708818 0);
d	0.05;
nTheta	100;
nk	1;
delta	0.003;
rho	100;
v	(-0.09632004352 -0.03467879137 0);
}
particle.7
{
particleShape	cylinder;
position	(0.1003171159 -0.03297259998 0);
d	0.05;
nTheta	100;
nk	1;
delta	0.003;
rho	100;
v	(0.04985217777 0.009237506911 0);
}
particle.8
{
particleShape	cylinder;
position	(-0.03789886993 0.04611691884 0);
d	0.05;
nTheta	100;
nk	1;
delta	0.003;
rho	100;
v	(-0.2637529869 0.007877358629 0);
}
particle.9
{
particleShape	cylinder;
position	(-0.1296024623 -0.0008571724746 0);
d	0.05;
nTheta	100;
nk	1;
delta	0.003;
rho	100;
v	(0.192048518 0.02883076317 0);
}
particle.10
{
particleShape	cylinder;
position	(-0.1552961341 -0.1599568111 0);
d	0.05;
nTheta	100;
nk	1;
delta	0.003;
rho	100;
v	(0.148345103 -0.2581664482 0);
}
particle.11
{
particleShape	cylinder;
position	(0.05440804217 -0.05889928334 0);
d	0.05;
nTheta	100;
nk	1;
delta	0.003;
rho	100;
v	(-0.07416873609 0.4226666455 0);
}
particle.12
{
particleShape	cylinder;
position	(-0.06988726517 -0.16839328 0);
d	0.05;
nTheta	100;
nk	1;
delta	0.003;
rho	100;
v	(-0.2859182087 -0.3439509074 0);
}
particle.13
{
particleShape	cylinder;
position	(0.1612864378 -0.0408188199 0);
d	0.05;
nTheta	100;
nk	1;
delta	0.003;
rho	100;
v	(-0.1163013473 -0.14894512 0);
}
particle.14
{
particleShape	cylinder;
position	(0.159321866 0.01998777724 0);
d	0.05;
nTheta	100;
nk	1;
delta	0.003;
rho	100;
v	(0.2257788214 -0.1706490217 0);
}
particle.15
{
particleShape	cylinder;
position	(0.16461642 -0.167463647 0);
d	0.05;
nTheta	100;
nk	1;
delta	0.003;
rho	100;
v	(0.2257433253 0.1144469472 0);
}
particle.16
{
particleShape	cylinder;
position	(-0.1720070189 0.1307519116 0);
d	0.025;
nTheta	100;
nk	1;
delta	0.003;
rho	100;
v	(0.08126442302 0.04639102857 0);
}
particle.17
{
particleShape	cylinder;
position	(-0.1203797841 -0.1215353443 0);
d	0.025;
nTheta	100;
nk	1;
delta	0.003;
rho	100;
v	(-0.1755000881 0.1573181864 0);
}
particle.18
{
particleShape	cylinder;
position	(0.1545819615 -0.1225621259 0);
d	0.025;
nTheta	100;
nk	1;
delta	0.003;
rho	100;
v	(0.01875566243 -0.08249244903 0);
}
particle.19
{
particleShape	cylinder;
position	(-0.0456591583 0.1428504814 0);
d	0.025;
nTheta	100;
nk	1;
delta	0.003;
rho	100;
v	(0.02781057841 -0.1125914283 0);
}
particle.20
{
particleShape	cylinder;
position	(-0.1808119204 0.1015941797 0);
d	0.025;
nTheta	100;
nk	1;
delta	0.003;
rho	100;
v	(0.03246300554 0.04003080985 0);
}
particle.21
{
particleShape	cylinder;
position	(0.003973798739 0.1793065172 0);
d	0.025;
nTheta	100;
nk	1;
delta	0.003;
rho	100;
v	(-0.1495034007 -0.1306782696 0);
}
particle.22
{
particleShape	cylinder;
position	(-0.08650474211 0.01015301901 0);
d	0.025;
nTheta	100;
nk	1;
delta	0.003;
rho	100;
v	(-0.04134705103 -0.008324785845 0);
}
particle.23
{
particleShape	cylinder;
position	(0.06409058059 -0.1142507896 0);
d	0.025;
nTheta	100;
nk	1;
delta	0.003;
rho	100;
v	(0.04559813027 -0.09048184161 0);
}
particle.24
{
particleShape	cylinder;
position	(0.0235852889 -0.1784667524 0);
d	0.025;
nTheta	100;
nk	1;
delta	0.003;
rho	100;
v	(-0.08642815799 -0.07326768671 0);
}
particle.25
{
particleShape	cylinder;
position	(-0.01807400535 -0.01040838586 0);
d	0.025;
nTheta	100;
nk	1;
delta	0.003;
rho	100;
v	(0.1382566071 0.05958111269 0);
}
particle.26
{
particleShape	cylinder;
position	(0.03521440784 0.1549680841 0);
d	0.025;
nTheta	100;
nk	1;
delta	0.003;
rho	100;
v	(-0.07856462654 0.04327692505 0);
}
particle.27
{
particleShape	cylinder;
position	(0.05992555791 0.1259863861 0);
d	0.025;
nTheta	100;
nk	1;
delta	0.003;
rho	100;
v	(-0.06396666767 -0.05356792836 0);
}
particle.28
{
particleShape	cylinder;
position	(-0.003447007751 -0.03747946746 0);
d	0.025;
nTheta	100;
nk	1;
delta	0.003;
rho	100;
v	(-0.3269579171 0.05882855936 0);
}
particle.29
{
particleShape	cylinder;
position	(-0.1050477284 0.1818280535 0);
d	0.025;
nTheta	100;
nk	1;
delta	0.003;
rho	100;
v	(-0.03916165789 -0.007678972576 0);
}
particle.30
{
particleShape	cylinder;
position	(0.01823663603 0.06365770108 0);
d	0.025;
nTheta	100;
nk	1;
delta	0.003;
rho	100;
v	(-0.1764087785 0.1248193582 0);
}
particle.31
{
particleShape	cylinder;
position	(-0.100655229 0.06497425502 0);
d	0.025;
nTheta	100;
nk	1;
delta	0.003;
rho	100;
v	(0.1145831052 -0.04547564155 0);
}
particle.32
{
particleShape	cylinder;
position	(-0.179974652 -0.03376677091 0);
d	0.025;
nTheta	100;
nk	1;
delta	0.003;
rho	100;
v	(0.1130416479 0.01722914572 0);
}
particle.33
{
particleShape	cylinder;
position	(0.1046902698 0.1166223675 0);
d	0.025;
nTheta	100;
nk	1;
delta	0.003;
rho	100;
v	(-0.01135430937 0.004021804352 0);
}
particle.34
{
particleShape	cylinder;
position	(-0.1630560847 0.1818297439 0);
d	0.025;
nTheta	100;
nk	1;
delta	0.003;
rho	100;
v	(-0.01575990453 -0.0646422268 0);
}
particle.35
{
particleShape	cylinder;
position	(0.1685686036 0.1842075658 0);
d	0.025;
nTheta	100;
nk	1;
delta	0.003;
rho	100;
v	(-0.07996586279 -0.1153936207 0);
}
particle.36
{
particleShape	cylinder;
position	(-0.1764727956 -0.1092354986 0);
d	0.025;
nTheta	100;
nk	1;
delta	0.003;
rho	100;
v	(-0.04362624671 0.0879147002 0);
}
particle.37
{
particleShape	cylinder;
position	(-0.1671718137 -0.06383015928 0);
d	0.025;
nTheta	100;
nk	1;
delta	0.003;
rho	100;
v	(0.0278996394 -0.108657129 0);
}
particle.38
{
particleShape	cylinder;
position	(0.1190672665 0.01546370502 0);
d	0.025;
nTheta	100;
nk	1;
delta	0.003;
rho	100;
v	(0.1191073666 -0.05500204363 0);
}
particle.39
{
particleShape	cylinder;
position	(-0.05294171215 0.09230337105 0);
d	0.025;
nTheta	100;
nk	1;
delta	0.003;
rho	100;
v	(0.1069524315 -0.1658288115 0);
}
particle.40
{
particleShape	cylinder;
position	(0.04518653935 -0.02221872874 0);
d	0.025;
nTheta	100;
nk	1;
delta	0.003;
rho	100;
v	(-0.09431164603 0.09686539862 0);
}
particle.41
{
particleShape	cylinder;
position	(-0.08549150201 -0.1145469377 0);
d	0.025;
nTheta	100;
nk	1;
delta	0.003;
rho	100;
v	(0.009361446255 0.04428766573 0);
}
particle.42
{
particleShape	cylinder;
position	(0.09308682424 -0.1168951228 0);
d	0.025;
nTheta	100;
nk	1;
delta	0.003;
rho	100;
v	(-0.0729901234 -0.02750677461 0);
}
particle.43
{
particleShape	cylinder;
position	(0.1184631866 -0.06970263994 0);
d	0.025;
nTheta	100;
nk	1;
delta	0.003;
rho	100;
v	(-0.08036360507 -0.01913720894 0);
}
particle.44
{
particleShape	cylinder;
position	(-0.0750362072 0.03673083676 0);
d	0.025;
nTheta	100;
nk	1;
delta	0.003;
rho	100;
v	(-0.1372942044 -0.1920928031 0);
}
particle.45
{
particleShape	cylinder;
position	(-0.06059171949 0.1800424661 0);
d	0.025;
nTheta	100;
nk	1;
delta	0.003;
rho	100;
v	(-0.01404344264 -0.1140953529 0);
}
particle.46
{
particleShape	cylinder;
position	(-0.1156221884 -0.1754686599 0);
d	0.025;
nTheta	100;
nk	1;
delta	0.003;
rho	100;
v	(-0.1035188965 0.06252154544 0);
}
particle.47
{
particleShape	cylinder;
position	(0.0649979157 0.002849210027 0);
d	0.025;
nTheta	100;
nk	1;
delta	0.003;
rho	100;
v	(0.01752883687 -0.1213752771 0);
}
particle.48
{
particleShape	cylinder;
position	(0.0497512553 -0.157469949 0);
d	0.025;
nTheta	100;
nk	1;
delta	0.003;
rho	100;
v	(-0.00680610352 -0.045453081 0);
}
particle.49
{
particleShape	cylinder;
position	(-0.1401802981 0.1012069256 0);
d	0.025;
nTheta	100;
nk	1;
delta	0.003;
rho	100;
v	(0.1970126611 0.007194817427 0);
}
particle.50
{
particleShape	cylinder;
position	(-0.02032353055 -0.05663015056 0);
d	0.025;
nTheta	100;
nk	1;
delta	0.003;
rho	100;
v	(0.01839872855 -0.06789142329 0);
}
particle.51
{
particleShape	cylinder;
position	(0.02735314523 0.1187026532 0);
d	0.025;
nTheta	100;
nk	1;
delta	0.003;
rho	100;
v	(0.05005048487 -0.1072310532 0);
}
particle.52
{
particleShape	cylinder;
position	(-0.0135456764 -0.1553586974 0);
d	0.025;
nTheta	100;
nk	1;
delta	0.003;
rho	100;
v	(-0.2114580105 0.08430793921 0);
}
particle.53
{
particleShape	cylinder;
position	(0.1302370224 0.1465109055 0);
d	0.025;
nTheta	100;
nk	1;
delta	0.003;
rho	100;
v	(0.04144996368 -0.05287646214 0);
}
particle.54
{
particleShape	cylinder;
position	(0.1664497861 0.1396159285 0);
d	0.025;
nTheta	100;
nk	1;
delta	0.003;
rho	100;
v	(-0.09421031181 0.1279645017 0);
}
particle.55
{
particleShape	cylinder;
position	(0.08785806846 0.1817667047 0);
d	0.025;
nTheta	100;
nk	1;
delta	0.003;
rho	100;
v	(-0.03575446337 0.02789988603 0);
}
particle.56
{
particleShape	cylinder;
position	(-0.05178986131 -0.05818786167 0);
d	0.025;
nTheta	100;
nk	1;
delta	0.003;
rho	100;
v	(0.03596874883 0.06608614726 0);
}
particle.57
{
particleShape	cylinder;
position	(-0.1229430391 0.1369096927 0);
d	0.025;
nTheta	100;
nk	1;
delta	0.003;
rho	100;
v	(-0.1917066588 0.02522161814 0);
}
particle.58
{
particleShape	cylinder;
position	(0.1267102355 -0.1811925247 0);
d	0.025;
nTheta	100;
nk	1;
delta	0.003;
rho	100;
v	(-0.0512938248 -0.01423947234 0);
}
particle.59
{
particleShape	cylinder;
position	(-0.1170365163 0.04574351241 0);
d	0.025;
nTheta	100;
nk	1;
delta	0.003;
rho	100;
v	(0.006212016414 0.006556570538 0);
}
particle.60
{
particleShape	cylinder;
position	(0.06597787042 0.06960495386 0);
d	0.025;
nTheta	100;
nk	1;
delta	0.003;
rho	100;
v	(0.132457225 0.06965656468 0);
}
particle.61
{
particleShape	cylinder;
position	(0.09795107459 -0.1603745428 0);
d	0.025;
nTheta	100;
nk	1;
delta	0.003;
rho	100;
v	(-0.07596192335 -0.01154665782 0);
}
particle.62
{
particleShape	cylinder;
position	(-0.00633054614 0.1503270501 0);
d	0.025;
nTheta	100;
nk	1;
delta	0.003;
rho	100;
v	(0.04681331675 -0.04460042502 0);
}
particle.63
{
particleShape	cylinder;
position	(0.1206524747 -0.1455623454 0);
d	0.025;
nTheta	100;
nk	1;
delta	0.003;
rho	100;
v	(0.1097836455 -0.04300032536 0);
}
particle.64
{
particleShape	cylinder;
position	(0.04009121737 -0.1219432435 0);
d	0.025;
nTheta	100;
nk	1;
delta	0.003;
rho	100;
v	(0.2427134935 -0.06815592743 0);
}
particle.65
{
particleShape	cylinder;
position	(0.1736019219 0.1018884431 0);
d	0.025;
nTheta	100;
nk	1;
delta	0.003;
rho	100;
v	(0.03157715247 0.08349692198 0);
}
particle.66
{
particleShape	cylinder;
position	(0.0686185987 0.04044666455 0);
d	0.025;
nTheta	100;
nk	1;
delta	0.003;
rho	100;
v	(0.1722980466 -0.08217355491 0);
}
particle.67
{
particleShape	cylinder;
position	(0.06765694241 0.1617375447 0);
d	0.025;
nTheta	100;
nk	1;
delta	0.003;
rho	100;
v	(-0.03025610067 0.03854321459 0);
}
particle.68
{
particleShape	cylinder;
position	(0.1246831856 -0.115316087 0);
d	0.025;
nTheta	100;
nk	1;
delta	0.003;
rho	100;
v	(-0.1159223413 -0.1630206095 0);
}
particle.69
{
particleShape	cylinder;
position	(0.1040325242 0.1511747453 0);
d	0.025;
nTheta	100;
nk	1;
delta	0.003;
rho	100;
v	(-0.02063739635 0.02253029472 0);
}
particle.70
{
particleShape	cylinder;
position	(0.03627335624 -0.09286758053 0);
d	0.025;
nTheta	100;
nk	1;
delta	0.003;
rho	100;
v	(0.03358847243 0.06068755352 0);
}
particle.71
{
particleShape	cylinder;
position	(0.03213971238 0.09024476237 0);
d	0.025;
nTheta	100;
nk	1;
delta	0.003;
rho	100;
v	(0.1145157727 0.03350328146 0);
}
particle.72
{
particleShape	cylinder;
position	(0.1377925048 0.1113304348 0);
d	0.025;
nTheta	100;
nk	1;
delta	0.003;
rho	100;
v	(0.06024096587 0.01667765344 0);
}
particle.73
{
particleShape	cylinder;
position	(0.0940087689 0.0366685429 0);
d	0.025;
nTheta	100;
nk	1;
delta	0.003;
rho	100;
v	(0.1020993775 -0.004843908346 0);
}
particle.74
{
particleShape	cylinder;
position	(-0.1711846715 0.000530408 0);
d	0.025;
nTheta	100;
nk	1;
delta	0.003;
rho	100;
v	(-0.1402353781 0.007609718688 0);
}
particle.75
{
particleShape	cylinder;
position	(-0.1550958735 0.07116784516 0);
d	0.025;
nTheta	100;
nk	1;
delta	0.003;
rho	100;
v	(0.1459993604 -0.1056061503 0);
}
particle.76
{
particleShape	cylinder;
position	(0.04040177399 0.04806356468 0);
d	0.025;
nTheta	100;
nk	1;
delta	0.003;
rho	100;
v	(0.02988702068 0.2173238552 0);
}
particle.77
{
particleShape	cylinder;
position	(-0.008021037772 0.07053681808 0);
d	0.025;
nTheta	100;
nk	1;
delta	0.003;
rho	100;
v	(-0.09264124417 -0.06704160397 0);
}
particle.78
{
particleShape	cylinder;
position	(-0.1424177843 0.1551223725 0);
d	0.025;
nTheta	100;
nk	1;
delta	0.003;
rho	100;
v	(0.01896646403 0.159080894 0);
}
particle.79
{
particleShape	cylinder;
position	(-0.1771507437 0.03008077508 0);
d	0.025;
nTheta	100;
nk	1;
delta	0.003;
rho	100;
v	(0.1246156285 -0.09388384266 0);
}
particle.80
{
particleShape	cylinder;
position	(-0.1321512801 -0.09718158277 0);
d	0.025;
nTheta	100;
nk	1;
delta	0.003;
rho	100;
v	(-0.007462600403 -0.06516667675 0);
}

