/*--------------------------------*- C++ -*----------------------------------*\
| =========                 |                                                 |
| \\      /  F ield         | OpenFOAM: The Open Source CFD Toolbox           |
|  \\    /   O peration     | Version:  dev                                   |
|   \\  /    A nd           | Web:      www.OpenFOAM.org                      |
|    \\/     M anipulation  |                                                 |
\*---------------------------------------------------------------------------*/
FoamFile
{
    version     2.0;
    format      ascii;
    class       dictionary;
    location    "constant";
    object      initialStates;
}
// * * * * * * * * * * * * * * * * * * * * * * * * * * * * * * * * * * * * * //

nParticles	3;
moving true;
e 0.9;

flow
{
    UInf    (0.3 0 0);
    rhoRef  1.4;
}
particle.0
{
    particleShape	cylinder;
    rho 100;
    v   (.1 0 0);
    position (0 0 0);
    d 0.1;
    nTheta	100;
    delta	0.01;
}

particle.1
{
    particleShape	cylinder;
    rho 100;
    v   (-.1 0 0);
    position (0.2 0.05 0);
    d	0.1;
    nTheta	100;
    delta	0.01;
}

particle.2
{
    particleShape	cylinder;
    rho 100;
    v   (0 0.1 0);
    position (0.1 -0.15 0);
    d	0.1;
    nTheta	100;
    delta	0.01;
}


