/*--------------------------------*- C++ -*----------------------------------*\
| =========                 |                                                 |
| \\      /  F ield         | OpenFOAM: The Open Source CFD Toolbox           |
|  \\    /   O peration     | Version:  dev                                   |
|   \\  /    A nd           | Web:      www.OpenFOAM.org                      |
|    \\/     M anipulation  |                                                 |
\*---------------------------------------------------------------------------*/
FoamFile
{
    version     2.0;
    format      ascii;
    class       dictionary;
    location    "system";
    object      innializeIBMDict;
}
// * * * * * * * * * * * * * * * * * * * * * * * * * * * * * * * * * * * * * //
particleSizeDistribution monodisperse;

flow
{
    UInf            (1 0 0);
    rho             rhoInf;
    rhoInf          1.0;
}

PSD
{
    volumeFraction  .1;
    deltaR          0.004;

    bb1              (-0.2 -0.2 -0.01);
    bb2              (0.4 0.2 0.01);

}

baseParticle
{
    p1              (0 0 0);
    p2              (0 0 0);
    d               0.1;
    nTheta          100;
    nk		    50;
    delta           0.005;
}

// ************************************************************************* //
