/*--------------------------------*- C++ -*----------------------------------*\
| =========                 |                                                 |
| \\      /  F ield         | OpenFOAM: The Open Source CFD Toolbox           |
|  \\    /   O peration     | Version:  dev                                   |
|   \\  /    A nd           | Web:      www.OpenFOAM.org                      |
|    \\/     M anipulation  |                                                 |
\*---------------------------------------------------------------------------*/
FoamFile
{
    version     2.0;
    format      ascii;
    class       dictionary;
    location    "system";
    object      innializeIBMDict;
}
// * * * * * * * * * * * * * * * * * * * * * * * * * * * * * * * * * * * * * //
particleSizeDistribution monodisperse;
pTypes (mono1);
coupled true;

moving true;
rotating true;
e 1;

flow
{
    UInf            (0 0.22 0);
    rho             rhoInf;
    rhoInf          1.0;
}

mono1
{
    particleShape   cylinder;
    volumeFraction  0.359;
    d               0.004;

    rho             1500;
    nTheta          300;
    delta           1.3e-4;

    randomVelocity true;
    velocityDistributionCoeffs
    {
        type gaussian;
        mean 0;
        variance 0;
    }
}
mono2
{
    particleShape   cylinder;
    nParticles      5;
//     volumeFraction  0.2;
    d               0.025;
    rho             1000;
    nTheta          100;
    delta           0.004;

    randomVelocity true;
    velocityDistributionCoeffs
    {
        type gaussian;
        mean 0;
        variance 0.1;
    }
}

// ************************************************************************* //
