/*--------------------------------*- C++ -*----------------------------------*\
| =========                 |                                                 |
| \\      /  F ield         | OpenFOAM: The Open Source CFD Toolbox           |
|  \\    /   O peration     | Version:  dev                                   |
|   \\  /    A nd           | Web:      www.OpenFOAM.org                      |
|    \\/     M anipulation  |                                                 |
\*---------------------------------------------------------------------------*/
FoamFile
{
    version     2.0;
    format      ascii;
    class       dictionary;
    location    "system";
    object      innializeIBMDict;
}
// * * * * * * * * * * * * * * * * * * * * * * * * * * * * * * * * * * * * * //
particleSizeDistribution monodisperse;
pTypes (mono1);
coupled true;

moving true;
rotating true;
e 1;

flow
{
    UInf            (1 0 0);
    rho             rhoInf;
    rhoInf          1.0;
}

mono1
{
    particleShape   ellipse;
    nParticles 1;
//     volumeFraction  0.1;
    d               0.15;
    a 0.05;
    b 0.15;
    rho             1000;
    nTheta          300;
    delta           0.004;

    randomVelocity true;
    velocityDistributionCoeffs
    {
        type gaussian;
        mean 0;
        variance 0.25;
    }
    randomTheta true;
    thetaDistributionCoeffs
    {
        type uniform;
        minVal 0;
        maxVal 6.28;
    }
}
mono2
{
    particleShape   cylinder;
    volumeFraction  0.2;
    d               0.05;
    rho             1000;
    nTheta          100;
    delta           0.004;

    randomVelocity true;
    velocityDistributionCoeffs
    {
        type gaussian;
        mean 0;
        variance 0.25;
    }
}

// ************************************************************************* //
