/*--------------------------------*- C++ -*----------------------------------*\
| =========                 |                                                 |
| \\      /  F ield         | OpenFOAM: The Open Source CFD Toolbox           |
|  \\    /   O peration     | Version:  dev                                   |
|   \\  /    A nd           | Web:      www.OpenFOAM.org                      |
|    \\/     M anipulation  |                                                 |
\*---------------------------------------------------------------------------*/
FoamFile
{
    version     2.0;
    format      ascii;
    class       dictionary;
    location    "system";
    object      innializeIBMDict;
}
// * * * * * * * * * * * * * * * * * * * * * * * * * * * * * * * * * * * * * //
particleSizeDistribution monodisperse;
pTypes (mono1);
coupled true;

moving true;
rotating false;
e 1;

flow
{
    UInf            (0 0.1 0);
    rho             rhoInf;
    rhoInf          1045.0;
}

mono1
{
    particleShape   sphere;
    nParticles      1;
    d               0.004;

    rho             1500;
    nTheta          200;
    delta           1.3e-4;

    randomVelocity false;
//     velocityDistributionCoeffs
//     {
//         type gaussian;
//         mean 0;
//         variance 0;
//     }
}

// ************************************************************************* //
