/*--------------------------------*- C++ -*----------------------------------*\
| =========                 |                                                 |
| \\      /  F ield         | OpenFOAM: The Open Source CFD Toolbox           |
|  \\    /   O peration     | Version:  dev                                   |
|   \\  /    A nd           | Web:      www.OpenFOAM.org                      |
|    \\/     M anipulation  |                                                 |
\*---------------------------------------------------------------------------*/
FoamFile
{
    version     2.0;
    format      ascii;
    class       volVectorField;
    location    "0";
    object      U;
}
// * * * * * * * * * * * * * * * * * * * * * * * * * * * * * * * * * * * * * //

dimensions      [0 1 -1 0 0 0 0];

internalField   uniform (0 0 0);
freestreamValue uniform (0.3 0 0);
boundaryField
{
    inlet
    {
        type            fixedValue;
        value           $freestreamValue;
    }

    outlet
    {
        type            zeroGradient;
    }

    freestream1
    {
        type            zeroGradient;
    }
    freestream2
    {
        type            zeroGradient;
    }
    freestream3
    {
        type            empty;
    }
    freestream4
    {
        type            empty;
    }
}

// ************************************************************************* //
